INSTALLATION

Enable module in bootstrap.php

    'flexiblemigrations' => MODPATH.'flexiblemigrations'

Run the migrations.sql script on your server