INSTALLATION

Enable module in bootstrap.php

    'flexiblemigrations' => MODPATH.'flexiblemigrations'

Run the migrations.sql script on your server

IMPORTANT: Grant write privileges to application/migrations folder

ENABLE ORM MODULE!!!!!




USAGE

Enter url:  yoursite.com/migrations